LAMMPS (3 Mar 2020)
# LAMMPS Input Script created with replicate_polymer_topology
# FF: /home/jramos/Programacion/GITHUB_REPO_DIR/replicate_polymer_topology/forcefields/loplsaa.xml

#======1.Initialization======
units                real
boundary             p p p
dimension            3
atom_style           full

#======2.Force Field terms======
pair_style     hybrid lj/cut/coul/long 10.0 10.0
bond_style     hybrid harmonic
angle_style    hybrid harmonic
dihedral_style hybrid multi/harmonic
#improper_style hybrid harmonic
special_bonds lj 0.0 0.0 0.5 coul 0.0 0.0 0.5

#======3.Data======
read_data ../01-MINIMIZE/restart.data.95.data
  triclinic box = (-18.55 -19.83 -18.55) to (31.701 30.421 31.701) with tilt (0 0 0)
  reading atoms ...
  12320 atoms
  reading velocities ...
  12320 velocities
  scanning bonds ...
  scanning angles ...
  scanning dihedrals ...
  reading bonds ...
  12280 bonds
  reading angles ...
  24480 angles
  reading dihedrals ...
  36360 dihedrals

#======4.Modify Pairs======
pair_modify mix geometric tail yes
kspace_style pppm 1e-6
kspace_modify gewald 0.1

timestep 1.0
#run_style respa 2 5 bond 1 angle 1 dihedral 1 improper 1 pair 2

#======5.Settings======
neigh_modify every 10 delay 20 check yes
thermo         10000
thermo_style custom step cpu ebond eangle edihed eimp epair evdwl ecoul elong etail pe temp press lx ly lz density
dump       1 all dcd   10000  dump.dcd
dump       2 all xyz   10000  dump_last.xyz
dump       3 all atom  10000  dump_last.atom
dump       4 all xtc   10000  dump.xtc
restart    5000000 restart.data

#======6.Minimization simulation======
#run 0
#minimize 1.0e-8 1.0e-10 10000 10000

#======6.NVT simulation======
#fix 1 all shake 0.0001 5 0 m 1.0
#fix 2 all nvt temp 500 500 100.0 drag 0.1
#fix 3 all temp/csvr 500 500 500 54324  # Equivalent to v-rescale Gromacs
#run 2500000

#======6.NPT simulation======
#fix 1 all shake 0.0001 5 0 m 1.0
fix 2 all npt temp 500 500 100.0 iso 1.0 1.0 1000.0 drag 1.0
fix 3 all temp/csvr 500 500 500 54324  # Equivalent to v-rescale Gromacs
run 5000000
PPPM initialization ...
  G vector (1/distance) = 0.1
  grid = 15 15 15
  stencil order = 5
  estimated absolute RMS force accuracy = 0.267081
  estimated relative force accuracy = 0.000804306
  3d grid and FFT values/proc = 1000 90
  update every 10 steps, delay 20 steps, check yes
Step CPU E_bond E_angle E_dihed E_impro E_pair E_vdwl E_coul E_long E_tail PotEng Temp Press Lx Ly Lz Density
0            0    101.09682    820.02171    1076.2954            0   -3256.6254   -4188.0737    3491.9558   -2560.5075   -286.27104   -1259.2115            0   -2758.3596       50.251       50.251       50.251    0.7499669
Averages over the last 251 of 501 rows, steps 2500000 to 5000000:
E_bond E_angle E_dihed E_impro E_pair E_vdwl E_coul E_long E_tail PotEng Temp Press Lx Ly Lz Density
6441.43 10126.5 2463.24 0 -1595.88 -2546.54 3510.94 -2560.28 -271.615 17435.3 500.104 -56.3271 51.1398 51.1398 51.1398 0.711572
Loop time of 12318.7 on 48 procs for 5000000 steps with 12320 atoms
